*INCLUDE,INPUT=all.msh
*INCLUDE,INPUT=bottom.nam
*INCLUDE,INPUT=symXZ.nam
*INCLUDE,INPUT=symYZ.nam

*BOUNDARY
Nbottom, 3
NsymXZ,2
NsymYZ,1

*MATERIAL,NAME=STEEL
*ELASTIC
210000.,.3
*DENSITY
7.8e-3

*SOLID SECTION,ELSET=Eall,MATERIAL=STEEL

*STEP

*STATIC

*DLOAD
*INCLUDE, INPUT=top.dlo

*NODE FILE,NSET=Nall
U
*EL FILE,ELSET=Eall
S

*END STEP
