*HEADING
BENDING_OF_MDF_PLATE

*INCLUDE,INPUT=all.msh
*INCLUDE,INPUT=n1.nam
*INCLUDE,INPUT=back.nam
*INCLUDE,INPUT=sides.nam

*BOUNDARY
Nback,3
Nsides,3
1,1,3

*MATERIAL,NAME=MDF
*ELASTIC,TYPE=ORTHO
1770.34037610135,563.197518958489,1770.34037610135,490.042957962565,490.042957962565,14.6455968088371,603.571428571429,51.6
51.6,

*DENSITY
7.63e-4

*SHELL SECTION,ELSET=Eall,MATERIAL=MDF
18.

*STEP
*STATIC

*DLOAD
*INCLUDE,INPUT=plate.dlo

*NODE FILE
U
*EL FILE
S

*END STEP
